#set iteration_limit=100000;

#set minimum_timestep=60

clock {
	starttime "2015-07-15 00:00";
	stoptime "2015-07-15 03:59";
}

module tape;

module generators;
module powerflow;

object triplex_meter {
	phases AS;
	nominal_voltage 240;
	object inverter {
		name EV_inverter;
		generator_status ONLINE;
		inverter_type FOUR_QUADRANT;
		//four_quadrant_control_mode CONSTANT_PQ;
		//parent EV_meter_B1_N79_A_0646;
		rated_power 5000.0;
		inverter_efficiency 0.95;
		P_Out 1000.0;
		Q_Out 0;
		object battery {
			name EV;
			parent EV_inverter;
			//use_internal_battery_model TRUE;
			battery_type LI_ION;
			power_factor 1.0;
			V_Max 260;
			I_Max 15;
			E_Max 7000;
			P_Max 1000;
			power_type DC;
			battery_capacity 7000;
			base_efficiency 0.95;
			state_of_charge 0.3;
			//generator_mode SUPPLY_DRIVEN;
			generator_mode CONSTANT_PQ;
			//charging_type commercial;
			//k 0;
		};
	};
}

object group_recorder {
	name rec_batt_soc;
	group "class=battery";
	property state_of_charge;
	file EVtest_battery_SOC.csv;
	interval 60;
	limit 100000;
}